
graph LR
    subgraph Acceptence
    0A["Settlement Areas"] --> 1B(["Euclidean Distance"]) --> 1C(["Reclassify"])
    1A["National Protected Areas"] --> 2B(["Euclidean Distance"]) --> 2C(["Reclassify"])
    2A["Woodland Areas"] --> 3B(["Euclidean Distance"]) --> 3C(["Reclassify"])
    3A["Lakes"] --> 4B(["Euclidean Distance"]) --> 4C(["Reclassify"])
    end
    subgraph Exclusion Areas
    0A --> 9A(["Merge"])
    1A --> 9A
    2A --> 9A
    3A --> 9A
    9A --> 9B(["Dissolve"]) --> 9C(["Feature to Raster"]) --> 9D(["Reclassify"])
    end
    subgraph Areas of Interest
    7A["Avarage Wind Speed"] --> 8C(["Reclassify"])
    6A["Icing Frequency"] --> 7C(["Reclassify"])
    5A["DHM"] --> 6B(["Slope"]) --> 6C(["Reclassify"])
    4A["Roads"] --> 5B(["Euclidean Distance"]) --> 5C(["Reclassify"])
    end

    1C --> X(["Sum"])
    2C-->X
    3C --> X
    4C --> X
    8C --> X
    7C --> X
    6C --> X
    5C --> X

    9D --> 10A(["Overlay"])
    X --> 10A --> 100A["Result"]

    classDef dataset fill:#00a900
    class 0A,1A,2A,3A,4A,5A,6A,7A,100A dataset;